Version 4.1
SHEET 1 3660 2324
WIRE -4448 -2624 -4560 -2624
WIRE -4256 -2624 -4368 -2624
WIRE -4560 -2528 -4560 -2624
WIRE -4560 -2528 -4592 -2528
WIRE -4512 -2528 -4560 -2528
WIRE -4256 -2528 -4256 -2624
WIRE -4256 -2528 -4288 -2528
WIRE -4256 -2432 -4288 -2432
WIRE -4560 -2336 -4560 -2528
WIRE -4512 -2336 -4560 -2336
WIRE -4256 -2336 -4288 -2336
WIRE 64 -2336 0 -2336
WIRE 416 -2336 384 -2336
WIRE 512 -2336 496 -2336
WIRE 752 -2336 512 -2336
WIRE 928 -2336 752 -2336
WIRE -2112 -2320 -2176 -2320
WIRE -1760 -2320 -1792 -2320
WIRE -1664 -2320 -1680 -2320
WIRE -1424 -2320 -1664 -2320
WIRE -1232 -2320 -1424 -2320
WIRE 928 -2320 928 -2336
WIRE -1232 -2304 -1232 -2320
WIRE 752 -2304 752 -2336
WIRE -1424 -2288 -1424 -2320
WIRE -4512 -2240 -4560 -2240
WIRE -4240 -2240 -4288 -2240
WIRE 512 -2224 512 -2336
WIRE 752 -2224 752 -2240
WIRE -1664 -2208 -1664 -2320
WIRE -1424 -2208 -1424 -2224
WIRE -1232 -2208 -1232 -2224
WIRE 64 -2208 32 -2208
WIRE 464 -2208 384 -2208
WIRE -2112 -2192 -2144 -2192
WIRE -1712 -2192 -1792 -2192
WIRE -4512 -2144 -4560 -2144
WIRE -4240 -2144 -4288 -2144
WIRE 64 -2080 16 -2080
WIRE 512 -2080 512 -2128
WIRE 512 -2080 384 -2080
WIRE 816 -2080 512 -2080
WIRE 912 -2080 816 -2080
WIRE 1040 -2080 912 -2080
WIRE -2112 -2064 -2160 -2064
WIRE -1664 -2064 -1664 -2112
WIRE -1664 -2064 -1792 -2064
WIRE -1360 -2064 -1664 -2064
WIRE -1264 -2064 -1360 -2064
WIRE -1136 -2064 -1264 -2064
WIRE 912 -2064 912 -2080
WIRE 1040 -2064 1040 -2080
WIRE -1264 -2048 -1264 -2064
WIRE -1136 -2048 -1136 -2064
WIRE 816 -2048 816 -2080
WIRE -1360 -2032 -1360 -2064
WIRE 512 -2032 512 -2080
WIRE -1664 -2016 -1664 -2064
WIRE -4496 -1968 -4736 -1968
WIRE 816 -1968 816 -1984
WIRE 912 -1968 912 -2000
WIRE 1040 -1968 1040 -2000
WIRE -1360 -1952 -1360 -1968
WIRE -1264 -1952 -1264 -1984
WIRE -1136 -1952 -1136 -1984
WIRE 16 -1952 16 -2080
WIRE 16 -1952 -48 -1952
WIRE 64 -1952 16 -1952
WIRE 464 -1952 384 -1952
WIRE -2160 -1936 -2160 -2064
WIRE -2160 -1936 -2224 -1936
WIRE -2112 -1936 -2160 -1936
WIRE -1712 -1936 -1792 -1936
WIRE -4736 -1920 -4736 -1968
WIRE -96 -1824 -112 -1824
WIRE -16 -1824 -32 -1824
WIRE 32 -1824 -16 -1824
WIRE 64 -1824 32 -1824
WIRE 416 -1824 384 -1824
WIRE 576 -1824 416 -1824
WIRE 720 -1824 640 -1824
WIRE -4336 -1808 -4336 -1824
WIRE -2272 -1808 -2288 -1808
WIRE -2192 -1808 -2208 -1808
WIRE -2144 -1808 -2192 -1808
WIRE -2112 -1808 -2144 -1808
WIRE -1760 -1808 -1792 -1808
WIRE -1600 -1808 -1760 -1808
WIRE -1456 -1808 -1536 -1808
WIRE -4496 -1792 -4496 -1968
WIRE -4464 -1792 -4464 -1824
WIRE -4464 -1792 -4496 -1792
WIRE -16 -1792 -16 -1824
WIRE 416 -1792 416 -1824
WIRE -4464 -1776 -4464 -1792
WIRE -4464 -1776 -4624 -1776
WIRE -2192 -1776 -2192 -1808
WIRE -1760 -1776 -1760 -1808
WIRE -4624 -1760 -4624 -1776
WIRE -4464 -1712 -4464 -1776
WIRE -4336 -1712 -4336 -1744
WIRE -16 -1696 -16 -1712
WIRE 64 -1696 -16 -1696
WIRE 416 -1696 416 -1728
WIRE 416 -1696 384 -1696
WIRE 512 -1696 512 -1936
WIRE 512 -1696 416 -1696
WIRE 816 -1696 512 -1696
WIRE -4064 -1680 -4240 -1680
WIRE -2192 -1680 -2192 -1696
WIRE -2112 -1680 -2192 -1680
WIRE -1760 -1680 -1760 -1712
WIRE -1760 -1680 -1792 -1680
WIRE -1664 -1680 -1664 -1920
WIRE -1664 -1680 -1760 -1680
WIRE -1360 -1680 -1664 -1680
WIRE -4736 -1648 -4752 -1648
WIRE -4624 -1648 -4624 -1680
WIRE -4624 -1648 -4656 -1648
WIRE -4544 -1648 -4624 -1648
WIRE -4240 -1648 -4240 -1680
WIRE -4240 -1648 -4256 -1648
WIRE -4064 -1648 -4064 -1680
WIRE 512 -1648 512 -1696
WIRE -1664 -1632 -1664 -1680
WIRE -48 -1568 -80 -1568
WIRE 64 -1568 32 -1568
WIRE 464 -1568 384 -1568
WIRE -4544 -1552 -4608 -1552
WIRE -4064 -1552 -4064 -1584
WIRE -4064 -1552 -4256 -1552
WIRE -2224 -1552 -2256 -1552
WIRE -2112 -1552 -2144 -1552
WIRE -1712 -1552 -1792 -1552
WIRE 512 -1520 512 -1552
WIRE -1664 -1504 -1664 -1536
WIRE -4192 -1456 -4256 -1456
WIRE -4064 -1456 -4064 -1552
WIRE -4064 -1456 -4112 -1456
WIRE -48 -1440 -80 -1440
WIRE 64 -1440 16 -1440
WIRE 448 -1440 384 -1440
WIRE 608 -1440 528 -1440
WIRE 816 -1440 816 -1696
WIRE 816 -1440 608 -1440
WIRE -2224 -1424 -2256 -1424
WIRE -2112 -1424 -2160 -1424
WIRE -1728 -1424 -1792 -1424
WIRE -1568 -1424 -1648 -1424
WIRE -1360 -1424 -1360 -1680
WIRE -1360 -1424 -1568 -1424
WIRE 816 -1424 816 -1440
WIRE -1360 -1408 -1360 -1424
WIRE 608 -1408 608 -1440
WIRE -1568 -1392 -1568 -1424
WIRE -4656 -1360 -4736 -1360
WIRE -4544 -1360 -4592 -1360
WIRE -4112 -1360 -4256 -1360
WIRE -3968 -1360 -4112 -1360
WIRE -3856 -1360 -3968 -1360
WIRE -3712 -1360 -3856 -1360
WIRE -3664 -1360 -3712 -1360
WIRE -592 -1360 -656 -1360
WIRE -464 -1360 -512 -1360
WIRE -368 -1360 -464 -1360
WIRE -352 -1360 -368 -1360
WIRE 32 -1360 -352 -1360
WIRE -4112 -1344 -4112 -1360
WIRE -3968 -1344 -3968 -1360
WIRE -3856 -1344 -3856 -1360
WIRE -3712 -1344 -3712 -1360
WIRE -2768 -1344 -2832 -1344
WIRE -2640 -1344 -2688 -1344
WIRE -2544 -1344 -2640 -1344
WIRE -2528 -1344 -2544 -1344
WIRE -2144 -1344 -2528 -1344
WIRE -464 -1344 -464 -1360
WIRE -368 -1344 -368 -1360
WIRE -2640 -1328 -2640 -1344
WIRE -2544 -1328 -2544 -1344
WIRE -4736 -1312 -4736 -1360
WIRE -4736 -1312 -4784 -1312
WIRE 32 -1312 32 -1360
WIRE 64 -1312 32 -1312
WIRE 448 -1312 384 -1312
WIRE 608 -1312 608 -1344
WIRE 608 -1312 528 -1312
WIRE 816 -1312 816 -1344
WIRE 816 -1312 608 -1312
WIRE -2144 -1296 -2144 -1344
WIRE -2112 -1296 -2144 -1296
WIRE -1728 -1296 -1792 -1296
WIRE -1568 -1296 -1568 -1328
WIRE -1568 -1296 -1648 -1296
WIRE -1360 -1296 -1360 -1328
WIRE -1360 -1296 -1568 -1296
WIRE -192 -1280 -224 -1280
WIRE -32 -1280 -112 -1280
WIRE 816 -1280 816 -1312
WIRE -4736 -1264 -4736 -1312
WIRE -4672 -1264 -4736 -1264
WIRE -4544 -1264 -4592 -1264
WIRE -4192 -1264 -4256 -1264
WIRE -2368 -1264 -2400 -1264
WIRE -2208 -1264 -2288 -1264
WIRE -1360 -1264 -1360 -1296
WIRE -3856 -1248 -3856 -1280
WIRE -3712 -1248 -3712 -1280
WIRE -464 -1248 -464 -1264
WIRE -416 -1248 -464 -1248
WIRE -368 -1248 -368 -1280
WIRE -368 -1248 -416 -1248
WIRE -2640 -1232 -2640 -1248
WIRE -2592 -1232 -2640 -1232
WIRE -2544 -1232 -2544 -1264
WIRE -2544 -1232 -2592 -1232
WIRE -416 -1232 -416 -1248
WIRE -4192 -1216 -4192 -1264
WIRE -4112 -1216 -4112 -1264
WIRE -4112 -1216 -4192 -1216
WIRE -3968 -1216 -3968 -1280
WIRE -3968 -1216 -4112 -1216
WIRE -2592 -1216 -2592 -1232
WIRE -4112 -1184 -4112 -1216
WIRE -176 -1184 -240 -1184
WIRE -32 -1184 -32 -1280
WIRE -32 -1184 -96 -1184
WIRE 64 -1184 -32 -1184
WIRE 416 -1184 384 -1184
WIRE -2352 -1168 -2416 -1168
WIRE -2208 -1168 -2208 -1264
WIRE -2208 -1168 -2272 -1168
WIRE -2112 -1168 -2208 -1168
WIRE -1760 -1168 -1792 -1168
WIRE -560 -1168 -624 -1168
WIRE -432 -1168 -480 -1168
WIRE -240 -1168 -240 -1184
WIRE -32 -1168 -32 -1184
WIRE 816 -1168 816 -1200
WIRE 816 -1168 512 -1168
WIRE -4400 -1152 -4400 -1200
WIRE -2736 -1152 -2800 -1152
WIRE -2608 -1152 -2656 -1152
WIRE -2416 -1152 -2416 -1168
WIRE -2208 -1152 -2208 -1168
WIRE -1360 -1152 -1360 -1184
WIRE -1360 -1152 -1664 -1152
WIRE 512 -1136 512 -1168
WIRE -1664 -1120 -1664 -1152
WIRE -240 -1088 -240 -1104
WIRE -32 -1088 -32 -1104
WIRE -4112 -1072 -4112 -1104
WIRE -2416 -1072 -2416 -1088
WIRE -2208 -1072 -2208 -1088
WIRE -560 -1056 -624 -1056
WIRE -432 -1056 -432 -1168
WIRE -432 -1056 -480 -1056
WIRE 64 -1056 -432 -1056
WIRE 464 -1056 384 -1056
WIRE -2736 -1040 -2800 -1040
WIRE -2608 -1040 -2608 -1152
WIRE -2608 -1040 -2656 -1040
WIRE -2112 -1040 -2608 -1040
WIRE -1712 -1040 -1792 -1040
WIRE -624 -1040 -624 -1056
WIRE -432 -1040 -432 -1056
WIRE -2800 -1024 -2800 -1040
WIRE -2608 -1024 -2608 -1040
WIRE 512 -1024 512 -1040
WIRE -1664 -1008 -1664 -1024
WIRE -4496 -992 -4576 -992
WIRE -624 -960 -624 -976
WIRE -432 -960 -432 -976
WIRE -2800 -944 -2800 -960
WIRE -2608 -944 -2608 -960
WIRE 64 -928 -112 -928
WIRE 416 -928 384 -928
WIRE 560 -928 416 -928
WIRE 720 -928 720 -1824
WIRE 720 -928 624 -928
WIRE -2112 -912 -2288 -912
WIRE -1760 -912 -1792 -912
WIRE -1616 -912 -1760 -912
WIRE -1456 -912 -1456 -1808
WIRE -1456 -912 -1552 -912
WIRE 416 -896 416 -928
WIRE -4576 -880 -4576 -992
WIRE -1760 -880 -1760 -912
WIRE -592 -864 -608 -864
WIRE -480 -864 -512 -864
WIRE -112 -864 -112 -928
WIRE -112 -864 -480 -864
WIRE -2768 -848 -2784 -848
WIRE -2656 -848 -2688 -848
WIRE -2288 -848 -2288 -912
WIRE -2288 -848 -2656 -848
WIRE -480 -800 -480 -864
WIRE -304 -800 -320 -800
WIRE -192 -800 -224 -800
WIRE 64 -800 -192 -800
WIRE 416 -800 416 -832
WIRE 416 -800 384 -800
WIRE 816 -800 816 -1168
WIRE 816 -800 416 -800
WIRE -4368 -784 -4368 -800
WIRE -2656 -784 -2656 -848
WIRE -2480 -784 -2496 -784
WIRE -2368 -784 -2400 -784
WIRE -2112 -784 -2368 -784
WIRE -1760 -784 -1760 -816
WIRE -1760 -784 -1792 -784
WIRE -1360 -784 -1360 -1152
WIRE -1360 -784 -1760 -784
WIRE -192 -784 -192 -800
WIRE -2368 -768 -2368 -784
WIRE -4496 -752 -4496 -992
WIRE -4496 -752 -4656 -752
WIRE -4656 -736 -4656 -752
WIRE -4496 -688 -4496 -752
WIRE -4368 -688 -4368 -720
WIRE 816 -688 816 -800
WIRE -1360 -672 -1360 -784
WIRE -480 -672 -480 -720
WIRE -192 -672 -192 -704
WIRE -192 -672 -480 -672
WIRE 32 -672 -192 -672
WIRE 64 -672 32 -672
WIRE 768 -672 384 -672
WIRE -4096 -656 -4272 -656
WIRE -2656 -656 -2656 -704
WIRE -2368 -656 -2368 -688
WIRE -2368 -656 -2656 -656
WIRE -2144 -656 -2368 -656
WIRE -2112 -656 -2144 -656
WIRE -1408 -656 -1792 -656
WIRE -4656 -624 -4656 -656
WIRE -4576 -624 -4656 -624
WIRE -4272 -624 -4272 -656
WIRE -4272 -624 -4288 -624
WIRE -4096 -624 -4096 -656
WIRE -192 -624 -192 -672
WIRE -2368 -608 -2368 -656
WIRE 1056 -592 992 -592
WIRE 1200 -592 1056 -592
WIRE -1120 -576 -1184 -576
WIRE -976 -576 -1120 -576
WIRE 1056 -576 1056 -592
WIRE 1200 -576 1200 -592
WIRE -1120 -560 -1120 -576
WIRE -976 -560 -976 -576
WIRE -16 -544 -80 -544
WIRE 64 -544 -16 -544
WIRE 816 -544 816 -592
WIRE 816 -544 384 -544
WIRE 992 -544 992 -592
WIRE 992 -544 816 -544
WIRE -4576 -528 -4640 -528
WIRE -4096 -528 -4096 -560
WIRE -4096 -528 -4288 -528
WIRE -2192 -528 -2256 -528
WIRE -2112 -528 -2192 -528
WIRE -1360 -528 -1360 -576
WIRE -1360 -528 -1792 -528
WIRE -1184 -528 -1184 -576
WIRE -1184 -528 -1360 -528
WIRE -192 -528 -192 -560
WIRE -80 -528 -80 -544
WIRE 816 -528 816 -544
WIRE -2368 -512 -2368 -544
WIRE -2256 -512 -2256 -528
WIRE -1360 -512 -1360 -528
WIRE 1056 -480 1056 -512
WIRE 1200 -480 1200 -512
WIRE -1120 -464 -1120 -496
WIRE -976 -464 -976 -496
WIRE -4224 -432 -4288 -432
WIRE -4096 -432 -4096 -528
WIRE -4096 -432 -4144 -432
WIRE -80 -432 -80 -464
WIRE -2256 -416 -2256 -448
WIRE 0 -416 -48 -416
WIRE 64 -416 0 -416
WIRE 816 -416 816 -448
WIRE 816 -416 384 -416
WIRE 944 -416 816 -416
WIRE 1088 -416 944 -416
WIRE 1232 -416 1088 -416
WIRE -2176 -400 -2224 -400
WIRE -2112 -400 -2176 -400
WIRE -1360 -400 -1360 -432
WIRE -1360 -400 -1792 -400
WIRE -1232 -400 -1360 -400
WIRE -1088 -400 -1232 -400
WIRE -944 -400 -1088 -400
WIRE 0 -400 0 -416
WIRE 944 -400 944 -416
WIRE 1088 -400 1088 -416
WIRE 1232 -400 1232 -416
WIRE -2176 -384 -2176 -400
WIRE -1232 -384 -1232 -400
WIRE -1088 -384 -1088 -400
WIRE -944 -384 -944 -400
WIRE -4688 -336 -4768 -336
WIRE -4576 -336 -4624 -336
WIRE -4144 -336 -4288 -336
WIRE -4000 -336 -4144 -336
WIRE -3888 -336 -4000 -336
WIRE -3744 -336 -3888 -336
WIRE -3600 -336 -3744 -336
WIRE -3120 -336 -3600 -336
WIRE 224 -336 224 -368
WIRE -4144 -320 -4144 -336
WIRE -4000 -320 -4000 -336
WIRE -3888 -320 -3888 -336
WIRE -3744 -320 -3744 -336
WIRE -3600 -320 -3600 -336
WIRE -1952 -320 -1952 -352
WIRE 0 -320 0 -336
WIRE -2176 -304 -2176 -320
WIRE 944 -304 944 -336
WIRE 1088 -304 1088 -336
WIRE 1232 -304 1232 -320
WIRE -4768 -288 -4768 -336
WIRE -4768 -288 -4816 -288
WIRE -1232 -288 -1232 -320
WIRE -1088 -288 -1088 -320
WIRE -944 -288 -944 -304
WIRE -48 -272 -48 -416
WIRE 720 -272 720 -928
WIRE 720 -272 -48 -272
WIRE -2224 -256 -2224 -400
WIRE -1456 -256 -1456 -912
WIRE -1456 -256 -2224 -256
WIRE -4768 -240 -4768 -288
WIRE -4704 -240 -4768 -240
WIRE -4576 -240 -4624 -240
WIRE -4224 -240 -4288 -240
WIRE -3120 -240 -3120 -336
WIRE -4224 -224 -4224 -240
WIRE -4144 -224 -4144 -240
WIRE -4144 -224 -4224 -224
WIRE -4000 -224 -4000 -256
WIRE -4000 -224 -4144 -224
WIRE -3888 -224 -3888 -256
WIRE -3744 -224 -3744 -256
WIRE -3600 -224 -3600 -240
WIRE -3152 -224 -3600 -224
WIRE -4144 -208 -4144 -224
WIRE -3600 -208 -3600 -224
WIRE -2928 -208 -3088 -208
WIRE -2880 -208 -2928 -208
WIRE -3152 -192 -3216 -192
WIRE -2928 -176 -2928 -208
WIRE -3120 -144 -3120 -176
WIRE -4432 -128 -4432 -176
WIRE -4144 -96 -4144 -128
WIRE -3600 -96 -3600 -128
WIRE -3216 -80 -3216 -192
WIRE -2928 -80 -2928 -96
WIRE -2928 -80 -3216 -80
WIRE -3312 32 -3344 32
WIRE -3216 32 -3216 -80
WIRE -3216 32 -3232 32
WIRE -3200 32 -3216 32
WIRE -3088 32 -3120 32
WIRE -3072 32 -3088 32
WIRE -2928 32 -2992 32
WIRE -2912 32 -2928 32
WIRE -3088 112 -3088 32
WIRE -3088 208 -3088 176
FLAG -1232 -2208 0
FLAG -1360 -1952 0
FLAG -944 -400 OUT
FLAG -1664 -1008 0
FLAG -1664 -1504 0
FLAG -1760 -1168 0
FLAG -2176 -304 0
FLAG -2496 -784 0
FLAG -2256 -1552 0
FLAG -1952 -320 0
FLAG -1088 -288 0
FLAG -2288 -1808 0
FLAG -944 -288 0
FLAG -2416 -1072 0
FLAG -2208 -1072 0
FLAG -2144 -1808 VDD
FLAG -1232 -288 0
FLAG -2256 -1424 0
FLAG -2528 -1344 IMON1
FLAG -2256 -416 0
FLAG -4256 -2336 0
FLAG -4592 -2528 VDD
FLAG -4256 -2432 0
FLAG -4560 -2240 SYNC1
FLAG -4560 -2144 SYNC2
FLAG -2144 -2192 SYNC1
FLAG -4240 -2144 SYNC3
FLAG -4240 -2240 SYNC4
FLAG -976 -464 0
FLAG -1120 -464 0
FLAG -1136 -1952 0
FLAG -1264 -1952 0
FLAG -2800 -944 0
FLAG -2608 -944 0
FLAG -2800 -1152 Vc2
FLAG -2784 -848 0
FLAG -4336 -1824 0
FLAG -4752 -1648 0
FLAG -4608 -1552 0
FLAG -4784 -1312 0
FLAG -4400 -1152 0
FLAG -4112 -1072 0
FLAG -3712 -1248 0
FLAG -3856 -1248 0
FLAG -3664 -1360 ExtVcc
FLAG -2368 -512 0
FLAG -2144 -656 OUT
FLAG -1424 -2208 0
FLAG -2176 -2320 EN
FLAG -2592 -1216 0
FLAG -2832 -1344 IMON
FLAG -2400 -1264 Vc1
FLAG -2192 -528 ExtVcc
FLAG -4464 -1824 IN
FLAG 816 -1968 0
FLAG 1232 -416 OUT
FLAG 512 -1024 0
FLAG 512 -1520 0
FLAG 416 -1184 0
FLAG 0 -320 0
FLAG -320 -800 0
FLAG -80 -1568 0
FLAG 224 -336 0
FLAG 1088 -304 0
FLAG -112 -1824 0
FLAG 1232 -304 0
FLAG -240 -1088 0
FLAG -32 -1088 0
FLAG 32 -1824 VDD
FLAG 944 -304 0
FLAG -80 -1440 0
FLAG -352 -1360 IMON2
FLAG -80 -432 0
FLAG 32 -2208 SYNC3
FLAG 1200 -480 0
FLAG 1056 -480 0
FLAG 1040 -1968 0
FLAG 912 -1968 0
FLAG -624 -960 0
FLAG -432 -960 0
FLAG -624 -1168 Vc2
FLAG -608 -864 0
FLAG -192 -528 0
FLAG 32 -672 OUT
FLAG 752 -2224 0
FLAG 0 -2336 EN
FLAG -416 -1232 0
FLAG -656 -1360 IMON
FLAG -224 -1280 Vc1
FLAG -16 -544 ExtVcc
FLAG -4368 -800 0
FLAG -4640 -528 0
FLAG -4816 -288 0
FLAG -4432 -128 0
FLAG -4144 -96 0
FLAG -3744 -224 0
FLAG -3888 -224 0
FLAG -3600 -96 0
FLAG -3344 32 0
FLAG -3120 -144 0
FLAG -3088 208 0
FLAG -2880 -208 EN
FLAG -2224 -1936 0
FLAG -48 -1952 0
FLAG 928 -2240 0
FLAG -4736 -1840 0
FLAG -2928 112 0
FLAG -4576 -800 0
SYMBOL voltage -1232 -2320 M0
WINDOW 123 0 0 Left 0
WINDOW 39 0 0 Left 0
WINDOW 0 -56 16 Left 2
WINDOW 3 -60 75 Left 2
SYMATTR InstName V1
SYMATTR Value 9
SYMBOL cap -1376 -2032 R0
SYMATTR InstName C1
SYMATTR Value 1”
SYMBOL cap -1776 -1776 R0
SYMATTR InstName C2
SYMATTR Value 0.1”
SYMBOL res -1376 -528 R0
SYMATTR InstName R1
SYMATTR Value 14m
SYMBOL ind -1376 -1280 R0
SYMATTR InstName L1
SYMATTR Value 15”
SYMATTR SpiceLine Rser=2.4m
SYMBOL res -1376 -1424 R0
SYMATTR InstName R2
SYMATTR Value 3m
SYMBOL cap -2192 -384 R0
SYMATTR InstName C3
SYMATTR Value 4.7”
SYMBOL res -2384 -784 R0
SYMATTR InstName R3
SYMATTR Value 825k
SYMBOL res -2384 -800 R90
WINDOW 0 0 56 VBottom 2
WINDOW 3 32 56 VTop 2
SYMATTR InstName R4
SYMATTR Value 75k
SYMBOL res -2656 -1344 R0
SYMATTR InstName R5
SYMATTR Value 11k
SYMBOL res -2128 -1568 R90
WINDOW 0 0 56 VBottom 2
WINDOW 3 32 56 VTop 2
SYMATTR InstName R6
SYMATTR Value 39.2k
SYMBOL diode -1552 -928 R90
WINDOW 0 0 32 VBottom 2
WINDOW 3 32 32 VTop 2
SYMATTR InstName D1
SYMATTR Value MURS120
SYMBOL diode -1536 -1824 R90
WINDOW 0 0 32 VBottom 2
WINDOW 3 32 32 VTop 2
SYMATTR InstName D2
SYMATTR Value MURS120
SYMBOL cap -1776 -880 R0
SYMATTR InstName C4
SYMATTR Value 0.1”
SYMBOL cap -2208 -1824 R90
WINDOW 0 0 32 VBottom 2
WINDOW 3 32 32 VTop 2
SYMATTR InstName C5
SYMATTR Value 1”
SYMBOL res -2208 -1792 R0
SYMATTR InstName R7
SYMATTR Value 10K
SYMBOL cap -2560 -1328 R0
WINDOW 0 35 23 Left 2
WINDOW 3 36 43 Left 2
SYMATTR InstName C6
SYMATTR Value 15n
SYMBOL res -960 -400 R0
WINDOW 3 36 68 Left 2
SYMATTR Value 10
SYMATTR InstName R8
SYMBOL res -2256 -1184 R90
WINDOW 0 0 56 VBottom 2
WINDOW 3 32 56 VTop 2
SYMATTR InstName R9
SYMATTR Value 30.1k
SYMBOL cap -2432 -1152 R0
SYMATTR InstName C7
SYMATTR Value 6.8n
SYMBOL cap -2224 -1152 R0
SYMATTR InstName C8
SYMATTR Value 220p
SYMBOL nmos -1712 -2112 M180
SYMATTR InstName MD1
SYMATTR Value BSC060N10NS3
SYMBOL cap -2160 -1440 R90
WINDOW 0 0 32 VBottom 2
WINDOW 3 32 32 VTop 2
SYMATTR InstName C9
SYMATTR Value 10n
SYMBOL SpecialFunctions\\LTC6902 -4400 -2336 R0
SYMATTR InstName U2
SYMBOL res -4352 -2640 R90
WINDOW 0 0 56 VBottom 2
WINDOW 3 32 56 VTop 2
SYMATTR InstName R11
SYMATTR Value 24.3k
SYMBOL cap -2272 -512 R0
SYMATTR InstName C10
SYMATTR Value 4.7”
SYMBOL cap -1216 -384 M0
WINDOW 0 -19 -3 Top 2
WINDOW 3 -19 68 Bottom 2
WINDOW 40 -16 97 Bottom 2
SYMATTR InstName C12
SYMATTR Value 33”
SYMATTR SpiceLine2 x2
SYMATTR SpiceLine Rser=2.2m
SYMBOL cap -1104 -560 M0
WINDOW 0 -19 -3 Top 2
WINDOW 3 -19 68 Bottom 2
WINDOW 40 -16 97 Bottom 2
SYMATTR InstName C14
SYMATTR Value 33”
SYMATTR SpiceLine2 x3
SYMATTR SpiceLine Rser=2.2m
SYMBOL nmos -1712 -2016 R0
SYMATTR InstName M1
SYMATTR Value BSC060N10NS3
SYMBOL nmos -1712 -1632 R0
SYMATTR InstName M2
SYMATTR Value BSC060N10NS3
SYMBOL nmos -1712 -1120 R0
SYMATTR InstName M3
SYMATTR Value BSC060N10NS3
SYMBOL nmos -1408 -576 M180
SYMATTR InstName M4
SYMATTR Value BSC060N10NS3
SYMBOL cap -1120 -2048 M0
WINDOW 0 -19 -3 Top 2
WINDOW 3 -19 68 Bottom 2
WINDOW 40 -16 97 Bottom 2
SYMATTR InstName C15
SYMATTR Value 68”
SYMATTR SpiceLine2 x3
SYMATTR SpiceLine Rser=320m
SYMBOL cap -1248 -2048 M0
WINDOW 0 -19 -3 Top 2
WINDOW 3 -19 68 Bottom 2
WINDOW 40 -16 97 Bottom 2
SYMATTR InstName C16
SYMATTR Value 33”
SYMATTR SpiceLine2 x3
SYMATTR SpiceLine Rser=2.2m
SYMBOL res -2640 -1056 R90
WINDOW 0 0 56 VBottom 2
WINDOW 3 32 56 VTop 2
SYMATTR InstName R13
SYMATTR Value 30.1k
SYMBOL cap -2816 -1024 R0
SYMATTR InstName C17
SYMATTR Value 6.8n
SYMBOL cap -2624 -1024 R0
SYMATTR InstName C18
SYMATTR Value 68p
SYMBOL res -2672 -800 R0
SYMATTR InstName R14
SYMATTR Value 550k
SYMBOL res -2672 -864 R90
WINDOW 0 0 56 VBottom 2
WINDOW 3 32 56 VTop 2
SYMATTR InstName R15
SYMATTR Value 50k
SYMBOL PowerProducts\\LT8631 -4400 -1456 R0
SYMATTR InstName U3
SYMBOL ind -4208 -1440 R270
WINDOW 0 32 56 VTop 2
WINDOW 3 5 56 VBottom 2
SYMATTR InstName L2
SYMATTR Value 22”
SYMBOL cap -4048 -1584 R180
WINDOW 0 24 56 Left 2
WINDOW 3 24 8 Left 2
SYMATTR InstName C19
SYMATTR Value 0.1”
SYMBOL cap -4320 -1744 R180
WINDOW 0 24 56 Left 2
WINDOW 3 24 8 Left 2
SYMATTR InstName C20
SYMATTR Value 2.2”
SYMBOL res -4640 -1776 R0
WINDOW 3 26 79 Left 2
SYMATTR Value 100k
SYMATTR InstName R16
SYMBOL res -4640 -1664 R90
WINDOW 0 0 56 VBottom 2
WINDOW 3 32 56 VTop 2
SYMATTR InstName R17
SYMATTR Value 12.1k
SYMBOL res -4576 -1280 R90
WINDOW 0 0 56 VBottom 2
WINDOW 3 32 56 VTop 2
SYMATTR InstName R18
SYMATTR Value 25.5k
SYMBOL cap -4656 -1344 R270
WINDOW 0 32 32 VTop 2
WINDOW 3 0 32 VBottom 2
SYMATTR InstName C21
SYMATTR Value 2n
SYMBOL res -4128 -1360 R0
SYMATTR InstName R19
SYMATTR Value 1Meg
SYMBOL res -4128 -1200 R0
SYMATTR InstName R20
SYMATTR Value 86.6k
SYMBOL cap -3728 -1344 R0
SYMATTR InstName C22
SYMATTR Value 1”
SYMBOL cap -3872 -1344 R0
SYMATTR InstName C23
SYMATTR Value 47”
SYMBOL cap -3984 -1344 R0
SYMATTR InstName C24
SYMATTR Value 4.7pF
SYMBOL cap -2384 -608 R0
SYMATTR InstName C25
SYMATTR Value 1”
SYMBOL PowerProducts\\LT8210-1 -1952 -1360 R0
SYMATTR InstName U1
SYMBOL res -1632 -1440 R90
WINDOW 0 0 56 VBottom 2
WINDOW 3 32 56 VTop 2
SYMATTR InstName R38
SYMATTR Value 10
SYMBOL res -1632 -1312 R90
WINDOW 0 0 56 VBottom 2
WINDOW 3 32 56 VTop 2
SYMATTR InstName R39
SYMATTR Value 10
SYMBOL cap -1584 -1392 R0
SYMATTR InstName C45
SYMATTR Value 1n
SYMBOL cap -1072 -384 M0
WINDOW 0 -19 -3 Top 2
WINDOW 3 -19 68 Bottom 2
WINDOW 40 -16 97 Bottom 2
SYMATTR InstName C13
SYMATTR Value 100”
SYMATTR SpiceLine2 x1
SYMATTR SpiceLine Rser=25m
SYMBOL cap -960 -560 M0
WINDOW 0 -19 -3 Top 2
WINDOW 3 -19 68 Bottom 2
WINDOW 40 -16 97 Bottom 2
SYMATTR InstName C11
SYMATTR Value 100”
SYMATTR SpiceLine2 x1
SYMATTR SpiceLine Rser=25m
SYMBOL cap -1440 -2288 R0
SYMATTR InstName C46
SYMATTR Value 1”
SYMBOL res -1664 -2336 R90
WINDOW 0 0 56 VBottom 2
WINDOW 3 32 56 VTop 2
SYMATTR InstName R40
SYMATTR Value 20
SYMBOL res -2672 -1360 R90
WINDOW 0 0 56 VBottom 2
WINDOW 3 32 56 VTop 2
SYMATTR InstName R21
SYMATTR Value 499
SYMBOL res -2272 -1280 R90
WINDOW 0 0 56 VBottom 2
WINDOW 3 32 56 VTop 2
SYMATTR InstName R22
SYMATTR Value 15k
SYMBOL res -2640 -1168 R90
WINDOW 0 0 56 VBottom 2
WINDOW 3 32 56 VTop 2
SYMATTR InstName R23
SYMATTR Value 15k
SYMBOL cap 800 -2048 R0
SYMATTR InstName C26
SYMATTR Value 1”
SYMBOL cap 400 -1792 R0
SYMATTR InstName C27
SYMATTR Value 0.1”
SYMBOL res 800 -544 R0
SYMATTR InstName R24
SYMATTR Value 14m
SYMBOL ind 800 -1296 R0
SYMATTR InstName L3
SYMATTR Value 15”
SYMATTR SpiceLine Rser=2.4m
SYMBOL res 800 -1440 R0
SYMATTR InstName R25
SYMATTR Value 3m
SYMBOL cap -16 -400 R0
SYMATTR InstName C28
SYMATTR Value 4.7”
SYMBOL res -208 -800 R0
SYMATTR InstName R26
SYMATTR Value 825k
SYMBOL res -208 -816 R90
WINDOW 0 0 56 VBottom 2
WINDOW 3 32 56 VTop 2
SYMATTR InstName R27
SYMATTR Value 75k
SYMBOL res -480 -1360 R0
SYMATTR InstName R28
SYMATTR Value 11k
SYMBOL res 48 -1584 R90
WINDOW 0 0 56 VBottom 2
WINDOW 3 32 56 VTop 2
SYMATTR InstName R29
SYMATTR Value 39.2k
SYMBOL diode 624 -944 R90
WINDOW 0 0 32 VBottom 2
WINDOW 3 32 32 VTop 2
SYMATTR InstName D3
SYMATTR Value MURS120
SYMBOL diode 640 -1840 R90
WINDOW 0 0 32 VBottom 2
WINDOW 3 32 32 VTop 2
SYMATTR InstName D4
SYMATTR Value MURS120
SYMBOL cap 400 -896 R0
SYMATTR InstName C29
SYMATTR Value 0.1”
SYMBOL cap -32 -1840 R90
WINDOW 0 0 32 VBottom 2
WINDOW 3 32 32 VTop 2
SYMATTR InstName C30
SYMATTR Value 1”
SYMBOL res -32 -1808 R0
SYMATTR InstName R30
SYMATTR Value 10K
SYMBOL cap -384 -1344 R0
WINDOW 0 35 23 Left 2
WINDOW 3 36 43 Left 2
SYMATTR InstName C31
SYMATTR Value 15n
SYMBOL res 1216 -416 R0
WINDOW 3 36 68 Left 2
SYMATTR Value 10
SYMATTR InstName R31
SYMBOL res -80 -1200 R90
WINDOW 0 0 56 VBottom 2
WINDOW 3 32 56 VTop 2
SYMATTR InstName R32
SYMATTR Value 30.1k
SYMBOL cap -256 -1168 R0
SYMATTR InstName C32
SYMATTR Value 6.8n
SYMBOL cap -48 -1168 R0
SYMATTR InstName C33
SYMATTR Value 220p
SYMBOL nmos 464 -2128 M180
SYMATTR InstName MD2
SYMATTR Value BSC060N10NS3
SYMBOL cap 16 -1456 R90
WINDOW 0 0 32 VBottom 2
WINDOW 3 32 32 VTop 2
SYMATTR InstName C34
SYMATTR Value 10n
SYMBOL cap -96 -528 R0
SYMATTR InstName C35
SYMATTR Value 4.7”
SYMBOL cap 960 -400 M0
WINDOW 0 -19 -3 Top 2
WINDOW 3 -19 68 Bottom 2
WINDOW 40 -16 97 Bottom 2
SYMATTR InstName C36
SYMATTR Value 33”
SYMATTR SpiceLine2 x2
SYMATTR SpiceLine Rser=2.2m
SYMBOL cap 1072 -576 M0
WINDOW 0 -19 -3 Top 2
WINDOW 3 -19 68 Bottom 2
WINDOW 40 -16 97 Bottom 2
SYMATTR InstName C37
SYMATTR Value 33”
SYMATTR SpiceLine2 x3
SYMATTR SpiceLine Rser=2.2m
SYMBOL nmos 464 -2032 R0
SYMATTR InstName M5
SYMATTR Value BSC060N10NS3
SYMBOL nmos 464 -1648 R0
SYMATTR InstName M6
SYMATTR Value BSC060N10NS3
SYMBOL nmos 464 -1136 R0
SYMATTR InstName M7
SYMATTR Value BSC060N10NS3
SYMBOL nmos 768 -592 M180
SYMATTR InstName M8
SYMATTR Value BSC060N10NS3
SYMBOL cap 1056 -2064 M0
WINDOW 0 -19 -3 Top 2
WINDOW 3 -19 68 Bottom 2
WINDOW 40 -16 97 Bottom 2
SYMATTR InstName C38
SYMATTR Value 68”
SYMATTR SpiceLine2 x3
SYMATTR SpiceLine Rser=320m
SYMBOL cap 928 -2064 M0
WINDOW 0 -19 -3 Top 2
WINDOW 3 -19 68 Bottom 2
WINDOW 40 -16 97 Bottom 2
SYMATTR InstName C39
SYMATTR Value 33”
SYMATTR SpiceLine2 x3
SYMATTR SpiceLine Rser=2.2m
SYMBOL res -464 -1072 R90
WINDOW 0 0 56 VBottom 2
WINDOW 3 32 56 VTop 2
SYMATTR InstName R35
SYMATTR Value 30.1k
SYMBOL cap -640 -1040 R0
SYMATTR InstName C40
SYMATTR Value 6.8n
SYMBOL cap -448 -1040 R0
SYMATTR InstName C41
SYMATTR Value 68p
SYMBOL res -496 -816 R0
SYMATTR InstName R36
SYMATTR Value 550k
SYMBOL res -496 -880 R90
WINDOW 0 0 56 VBottom 2
WINDOW 3 32 56 VTop 2
SYMATTR InstName R37
SYMATTR Value 50k
SYMBOL cap -208 -624 R0
SYMATTR InstName C42
SYMATTR Value 1”
SYMBOL PowerProducts\\LT8210-1 224 -1376 R0
SYMATTR InstName U4
SYMBOL res 544 -1456 R90
WINDOW 0 0 56 VBottom 2
WINDOW 3 32 56 VTop 2
SYMATTR InstName R41
SYMATTR Value 10
SYMBOL res 544 -1328 R90
WINDOW 0 0 56 VBottom 2
WINDOW 3 32 56 VTop 2
SYMATTR InstName R42
SYMATTR Value 10
SYMBOL cap 592 -1408 R0
SYMATTR InstName C43
SYMATTR Value 1n
SYMBOL cap 1104 -400 M0
WINDOW 0 -19 -3 Top 2
WINDOW 3 -19 68 Bottom 2
WINDOW 40 -16 97 Bottom 2
SYMATTR InstName C44
SYMATTR Value 100”
SYMATTR SpiceLine2 x1
SYMATTR SpiceLine Rser=25m
SYMBOL cap 1216 -576 M0
WINDOW 0 -19 -3 Top 2
WINDOW 3 -19 68 Bottom 2
WINDOW 40 -16 97 Bottom 2
SYMATTR InstName C47
SYMATTR Value 100”
SYMATTR SpiceLine2 x1
SYMATTR SpiceLine Rser=25m
SYMBOL cap 736 -2304 R0
SYMATTR InstName C48
SYMATTR Value 1”
SYMBOL res 512 -2352 R90
WINDOW 0 0 56 VBottom 2
WINDOW 3 32 56 VTop 2
SYMATTR InstName R43
SYMATTR Value 20
SYMBOL res -496 -1376 R90
WINDOW 0 0 56 VBottom 2
WINDOW 3 32 56 VTop 2
SYMATTR InstName R44
SYMATTR Value 499
SYMBOL res -96 -1296 R90
WINDOW 0 0 56 VBottom 2
WINDOW 3 32 56 VTop 2
SYMATTR InstName R45
SYMATTR Value 15k
SYMBOL res -464 -1184 R90
WINDOW 0 0 56 VBottom 2
WINDOW 3 32 56 VTop 2
SYMATTR InstName R46
SYMATTR Value 15k
SYMBOL PowerProducts\\LT8631 -4432 -432 R0
SYMATTR InstName U5
SYMBOL ind -4240 -416 R270
WINDOW 0 32 56 VTop 2
WINDOW 3 5 56 VBottom 2
SYMATTR InstName L4
SYMATTR Value 22”
SYMBOL cap -4080 -560 R180
WINDOW 0 24 56 Left 2
WINDOW 3 24 8 Left 2
SYMATTR InstName C49
SYMATTR Value 0.1”
SYMBOL cap -4352 -720 R180
WINDOW 0 24 56 Left 2
WINDOW 3 24 8 Left 2
SYMATTR InstName C50
SYMATTR Value 2.2”
SYMBOL res -4672 -752 R0
WINDOW 3 27 86 Left 2
SYMATTR Value 1Meg
SYMATTR InstName R47
SYMBOL res -4608 -256 R90
WINDOW 0 0 56 VBottom 2
WINDOW 3 32 56 VTop 2
SYMATTR InstName R48
SYMATTR Value 25.5k
SYMBOL cap -4688 -320 R270
WINDOW 0 32 32 VTop 2
WINDOW 3 0 32 VBottom 2
SYMATTR InstName C51
SYMATTR Value 2n
SYMBOL res -4160 -336 R0
SYMATTR InstName R49
SYMATTR Value 1Meg
SYMBOL res -4160 -224 R0
SYMATTR InstName R50
SYMATTR Value 191k
SYMBOL cap -3760 -320 R0
SYMATTR InstName C52
SYMATTR Value 1”
SYMBOL cap -3904 -320 R0
SYMATTR InstName C53
SYMATTR Value 47”
SYMBOL cap -4016 -320 R0
SYMATTR InstName C54
SYMATTR Value 4.7pF
SYMBOL OpAmps\\LTC2052 -3120 -208 R0
SYMATTR InstName U6
SYMBOL res -3616 -336 R0
SYMATTR InstName R51
SYMATTR Value 121k
SYMBOL res -3616 -224 R0
SYMATTR InstName R52
SYMATTR Value 30k
SYMBOL res -3104 16 R90
WINDOW 0 0 56 VBottom 2
WINDOW 3 32 56 VTop 2
SYMATTR InstName R53
SYMATTR Value 10k
SYMBOL res -3216 16 R90
WINDOW 0 0 56 VBottom 2
WINDOW 3 32 56 VTop 2
SYMATTR InstName R54
SYMATTR Value 10k
SYMBOL res -2976 16 R90
WINDOW 0 0 56 VBottom 2
WINDOW 3 32 56 VTop 2
SYMATTR InstName R55
SYMATTR Value 10k
SYMBOL res -2944 -192 R0
SYMATTR InstName R56
SYMATTR Value 221k
SYMBOL zener -3072 176 R180
WINDOW 0 24 64 Left 2
WINDOW 3 24 0 Left 2
SYMATTR InstName D5
SYMATTR Value EDZV8_2B
SYMBOL voltage 928 -2336 R0
WINDOW 123 0 0 Left 0
WINDOW 39 0 0 Left 0
SYMATTR InstName V2
SYMATTR Value 9
SYMBOL voltage -4736 -1936 R0
WINDOW 123 0 0 Left 0
WINDOW 39 0 0 Left 0
SYMATTR InstName V3
SYMATTR Value 10
SYMBOL voltage -2928 16 R0
WINDOW 123 0 0 Left 0
WINDOW 39 0 0 Left 0
SYMATTR InstName V4
SYMATTR Value 9
SYMBOL voltage -4576 -896 R0
WINDOW 123 0 0 Left 0
WINDOW 39 0 0 Left 0
SYMATTR InstName V5
SYMATTR Value 10
TEXT -776 -152 Left 2 !.tran 5m startup
